<routes>
		<vType id="typeWE" accel="0.8" decel="4.5" sigma="0.5" length="5" minGap="3" maxSpeed="25" 		guiShape="passenger"/>
		<vType id="typeNS" accel="0.8" decel="4.5" sigma="0.5" length="5" minGap="3" maxSpeed="25" guiShape="passenger"/>
		<route id="right" edges="51o 1i 2o 52i" />
		<route id="left" edges="52o 2i 1o 51i" />
		<route id="up" edges="53o 3i 4o 54i" />
		<route id="down" edges="54o 4i 3o 53i" />
    <vehicle id="left_0" type="typeWE" route="left" depart="0" />
    <vehicle id="left_1" type="typeWE" route="left" depart="2" />
    <vehicle id="right_2" type="typeWE" route="right" depart="3" />
    <vehicle id="up_3" type="typeNS" route="up" depart="4" color="1,0,0"/>
    <vehicle id="left_4" type="typeWE" route="left" depart="10" />
    <vehicle id="up_5" type="typeNS" route="up" depart="16" color="1,0,0"/>
    <vehicle id="left_6" type="typeWE" route="left" depart="22" />
    <vehicle id="right_7" type="typeWE" route="right" depart="25" />
    <vehicle id="right_8" type="typeWE" route="right" depart="31" />
    <vehicle id="down_9" type="typeNS" route="down" depart="31" color="1,0,0"/>
    <vehicle id="left_10" type="typeWE" route="left" depart="49" />
    <vehicle id="left_11" type="typeWE" route="left" depart="67" />
    <vehicle id="down_12" type="typeNS" route="down" depart="72" color="1,0,0"/>
    <vehicle id="left_13" type="typeWE" route="left" depart="74" />
    <vehicle id="right_14" type="typeWE" route="right" depart="81" />
    <vehicle id="down_15" type="typeNS" route="down" depart="85" color="1,0,0"/>
    <vehicle id="right_16" type="typeWE" route="right" depart="92" />
    <vehicle id="down_17" type="typeNS" route="down" depart="98" color="1,0,0"/>
    <vehicle id="up_18" type="typeNS" route="up" depart="103" color="1,0,0"/>
    <vehicle id="up_19" type="typeNS" route="up" depart="106" color="1,0,0"/>
    <vehicle id="left_20" type="typeWE" route="left" depart="117" />
    <vehicle id="left_21" type="typeWE" route="left" depart="120" />
    <vehicle id="left_22" type="typeWE" route="left" depart="123" />
    <vehicle id="left_23" type="typeWE" route="left" depart="125" />
    <vehicle id="right_24" type="typeWE" route="right" depart="126" />
    <vehicle id="down_25" type="typeNS" route="down" depart="129" color="1,0,0"/>
    <vehicle id="right_26" type="typeWE" route="right" depart="132" />
    <vehicle id="up_27" type="typeNS" route="up" depart="135" color="1,0,0"/>
    <vehicle id="left_28" type="typeWE" route="left" depart="147" />
    <vehicle id="down_29" type="typeNS" route="down" depart="149" color="1,0,0"/>
    <vehicle id="left_30" type="typeWE" route="left" depart="159" />
    <vehicle id="right_31" type="typeWE" route="right" depart="171" />
    <vehicle id="right_32" type="typeWE" route="right" depart="179" />
    <vehicle id="right_33" type="typeWE" route="right" depart="182" />
    <vehicle id="left_34" type="typeWE" route="left" depart="204" />
    <vehicle id="up_35" type="typeNS" route="up" depart="212" color="1,0,0"/>
    <vehicle id="right_36" type="typeWE" route="right" depart="216" />
    <vehicle id="down_37" type="typeNS" route="down" depart="220" color="1,0,0"/>
    <vehicle id="right_38" type="typeWE" route="right" depart="227" />
    <vehicle id="right_39" type="typeWE" route="right" depart="239" />
    <vehicle id="down_40" type="typeNS" route="down" depart="241" color="1,0,0"/>
    <vehicle id="up_41" type="typeNS" route="up" depart="248" color="1,0,0"/>
    <vehicle id="left_42" type="typeWE" route="left" depart="253" />
    <vehicle id="down_43" type="typeNS" route="down" depart="256" color="1,0,0"/>
    <vehicle id="left_44" type="typeWE" route="left" depart="258" />
    <vehicle id="down_45" type="typeNS" route="down" depart="258" color="1,0,0"/>
    <vehicle id="left_46" type="typeWE" route="left" depart="262" />
    <vehicle id="left_47" type="typeWE" route="left" depart="281" />
    <vehicle id="left_48" type="typeWE" route="left" depart="283" />
    <vehicle id="up_49" type="typeNS" route="up" depart="284" color="1,0,0"/>
    <vehicle id="left_50" type="typeWE" route="left" depart="287" />
    <vehicle id="left_51" type="typeWE" route="left" depart="291" />
    <vehicle id="right_52" type="typeWE" route="right" depart="292" />
    <vehicle id="down_53" type="typeNS" route="down" depart="293" color="1,0,0"/>
    <vehicle id="right_54" type="typeWE" route="right" depart="296" />
    <vehicle id="left_55" type="typeWE" route="left" depart="296" />
    <vehicle id="left_56" type="typeWE" route="left" depart="298" />
    <vehicle id="left_57" type="typeWE" route="left" depart="315" />
    <vehicle id="left_58" type="typeWE" route="left" depart="343" />
    <vehicle id="up_59" type="typeNS" route="up" depart="344" color="1,0,0"/>
    <vehicle id="up_60" type="typeNS" route="up" depart="347" color="1,0,0"/>
    <vehicle id="left_61" type="typeWE" route="left" depart="350" />
    <vehicle id="right_62" type="typeWE" route="right" depart="352" />
    <vehicle id="left_63" type="typeWE" route="left" depart="357" />
    <vehicle id="left_64" type="typeWE" route="left" depart="359" />
    <vehicle id="right_65" type="typeWE" route="right" depart="363" />
    <vehicle id="left_66" type="typeWE" route="left" depart="372" />
    <vehicle id="left_67" type="typeWE" route="left" depart="376" />
    <vehicle id="right_68" type="typeWE" route="right" depart="389" />
    <vehicle id="right_69" type="typeWE" route="right" depart="402" />
    <vehicle id="left_70" type="typeWE" route="left" depart="402" />
    <vehicle id="left_71" type="typeWE" route="left" depart="406" />
    <vehicle id="left_72" type="typeWE" route="left" depart="414" />
    <vehicle id="left_73" type="typeWE" route="left" depart="430" />
    <vehicle id="up_74" type="typeNS" route="up" depart="433" color="1,0,0"/>
    <vehicle id="down_75" type="typeNS" route="down" depart="434" color="1,0,0"/>
    <vehicle id="up_76" type="typeNS" route="up" depart="451" color="1,0,0"/>
    <vehicle id="right_77" type="typeWE" route="right" depart="459" />
    <vehicle id="down_78" type="typeNS" route="down" depart="468" color="1,0,0"/>
    <vehicle id="left_79" type="typeWE" route="left" depart="469" />
    <vehicle id="right_80" type="typeWE" route="right" depart="483" />
    <vehicle id="up_81" type="typeNS" route="up" depart="484" color="1,0,0"/>
    <vehicle id="left_82" type="typeWE" route="left" depart="490" />
    <vehicle id="down_83" type="typeNS" route="down" depart="490" color="1,0,0"/>
    <vehicle id="down_84" type="typeNS" route="down" depart="494" color="1,0,0"/>
    <vehicle id="left_85" type="typeWE" route="left" depart="495" />
    <vehicle id="right_86" type="typeWE" route="right" depart="496" />
    <vehicle id="down_87" type="typeNS" route="down" depart="512" color="1,0,0"/>
    <vehicle id="up_88" type="typeNS" route="up" depart="525" color="1,0,0"/>
    <vehicle id="right_89" type="typeWE" route="right" depart="528" />
    <vehicle id="right_90" type="typeWE" route="right" depart="530" />
    <vehicle id="down_91" type="typeNS" route="down" depart="530" color="1,0,0"/>
    <vehicle id="down_92" type="typeNS" route="down" depart="531" color="1,0,0"/>
    <vehicle id="left_93" type="typeWE" route="left" depart="538" />
    <vehicle id="right_94" type="typeWE" route="right" depart="543" />
    <vehicle id="left_95" type="typeWE" route="left" depart="548" />
    <vehicle id="left_96" type="typeWE" route="left" depart="550" />
    <vehicle id="left_97" type="typeWE" route="left" depart="555" />
    <vehicle id="down_98" type="typeNS" route="down" depart="557" color="1,0,0"/>
    <vehicle id="down_99" type="typeNS" route="down" depart="582" color="1,0,0"/>
    <vehicle id="down_100" type="typeNS" route="down" depart="585" color="1,0,0"/>
    <vehicle id="up_101" type="typeNS" route="up" depart="593" color="1,0,0"/>
    <vehicle id="down_102" type="typeNS" route="down" depart="606" color="1,0,0"/>
    <vehicle id="left_103" type="typeWE" route="left" depart="609" />
    <vehicle id="left_104" type="typeWE" route="left" depart="613" />
    <vehicle id="right_105" type="typeWE" route="right" depart="629" />
    <vehicle id="right_106" type="typeWE" route="right" depart="634" />
    <vehicle id="up_107" type="typeNS" route="up" depart="635" color="1,0,0"/>
    <vehicle id="up_108" type="typeNS" route="up" depart="640" color="1,0,0"/>
    <vehicle id="right_109" type="typeWE" route="right" depart="642" />
    <vehicle id="up_110" type="typeNS" route="up" depart="646" color="1,0,0"/>
    <vehicle id="left_111" type="typeWE" route="left" depart="659" />
    <vehicle id="right_112" type="typeWE" route="right" depart="660" />
    <vehicle id="left_113" type="typeWE" route="left" depart="660" />
    <vehicle id="left_114" type="typeWE" route="left" depart="665" />
    <vehicle id="left_115" type="typeWE" route="left" depart="666" />
    <vehicle id="up_116" type="typeNS" route="up" depart="671" color="1,0,0"/>
    <vehicle id="left_117" type="typeWE" route="left" depart="676" />
    <vehicle id="up_118" type="typeNS" route="up" depart="683" color="1,0,0"/>
    <vehicle id="right_119" type="typeWE" route="right" depart="687" />
    <vehicle id="up_120" type="typeNS" route="up" depart="688" color="1,0,0"/>
    <vehicle id="left_121" type="typeWE" route="left" depart="704" />
    <vehicle id="left_122" type="typeWE" route="left" depart="706" />
    <vehicle id="right_123" type="typeWE" route="right" depart="709" />
    <vehicle id="left_124" type="typeWE" route="left" depart="709" />
    <vehicle id="right_125" type="typeWE" route="right" depart="711" />
    <vehicle id="down_126" type="typeNS" route="down" depart="712" color="1,0,0"/>
    <vehicle id="left_127" type="typeWE" route="left" depart="714" />
    <vehicle id="left_128" type="typeWE" route="left" depart="721" />
    <vehicle id="left_129" type="typeWE" route="left" depart="727" />
    <vehicle id="right_130" type="typeWE" route="right" depart="731" />
    <vehicle id="right_131" type="typeWE" route="right" depart="733" />
    <vehicle id="up_132" type="typeNS" route="up" depart="741" color="1,0,0"/>
    <vehicle id="down_133" type="typeNS" route="down" depart="747" color="1,0,0"/>
    <vehicle id="up_134" type="typeNS" route="up" depart="754" color="1,0,0"/>
    <vehicle id="left_135" type="typeWE" route="left" depart="758" />
    <vehicle id="up_136" type="typeNS" route="up" depart="760" color="1,0,0"/>
    <vehicle id="left_137" type="typeWE" route="left" depart="782" />
    <vehicle id="left_138" type="typeWE" route="left" depart="785" />
    <vehicle id="down_139" type="typeNS" route="down" depart="792" color="1,0,0"/>
    <vehicle id="up_140" type="typeNS" route="up" depart="795" color="1,0,0"/>
    <vehicle id="right_141" type="typeWE" route="right" depart="801" />
    <vehicle id="up_142" type="typeNS" route="up" depart="801" color="1,0,0"/>
    <vehicle id="up_143" type="typeNS" route="up" depart="802" color="1,0,0"/>
    <vehicle id="right_144" type="typeWE" route="right" depart="814" />
    <vehicle id="left_145" type="typeWE" route="left" depart="828" />
    <vehicle id="left_146" type="typeWE" route="left" depart="832" />
    <vehicle id="left_147" type="typeWE" route="left" depart="841" />
    <vehicle id="left_148" type="typeWE" route="left" depart="842" />
    <vehicle id="left_149" type="typeWE" route="left" depart="843" />
    <vehicle id="left_150" type="typeWE" route="left" depart="850" />
    <vehicle id="down_151" type="typeNS" route="down" depart="851" color="1,0,0"/>
    <vehicle id="up_152" type="typeNS" route="up" depart="855" color="1,0,0"/>
    <vehicle id="left_153" type="typeWE" route="left" depart="865" />
    <vehicle id="left_154" type="typeWE" route="left" depart="867" />
    <vehicle id="left_155" type="typeWE" route="left" depart="875" />
    <vehicle id="left_156" type="typeWE" route="left" depart="879" />
    <vehicle id="right_157" type="typeWE" route="right" depart="886" />
    <vehicle id="left_158" type="typeWE" route="left" depart="892" />
    <vehicle id="right_159" type="typeWE" route="right" depart="906" />
    <vehicle id="right_160" type="typeWE" route="right" depart="909" />
    <vehicle id="up_161" type="typeNS" route="up" depart="913" color="1,0,0"/>
    <vehicle id="right_162" type="typeWE" route="right" depart="928" />
    <vehicle id="up_163" type="typeNS" route="up" depart="934" color="1,0,0"/>
    <vehicle id="left_164" type="typeWE" route="left" depart="939" />
    <vehicle id="down_165" type="typeNS" route="down" depart="941" color="1,0,0"/>
    <vehicle id="left_166" type="typeWE" route="left" depart="950" />
    <vehicle id="right_167" type="typeWE" route="right" depart="961" />
    <vehicle id="up_168" type="typeNS" route="up" depart="966" color="1,0,0"/>
    <vehicle id="left_169" type="typeWE" route="left" depart="967" />
    <vehicle id="right_170" type="typeWE" route="right" depart="978" />
    <vehicle id="left_171" type="typeWE" route="left" depart="988" />
    <vehicle id="down_172" type="typeNS" route="down" depart="991" color="1,0,0"/>
    <vehicle id="left_173" type="typeWE" route="left" depart="999" />
    <vehicle id="left_174" type="typeWE" route="left" depart="1008" />
    <vehicle id="up_175" type="typeNS" route="up" depart="1017" color="1,0,0"/>
    <vehicle id="up_176" type="typeNS" route="up" depart="1019" color="1,0,0"/>
    <vehicle id="up_177" type="typeNS" route="up" depart="1024" color="1,0,0"/>
    <vehicle id="left_178" type="typeWE" route="left" depart="1025" />
    <vehicle id="down_179" type="typeNS" route="down" depart="1035" color="1,0,0"/>
    <vehicle id="right_180" type="typeWE" route="right" depart="1038" />
    <vehicle id="right_181" type="typeWE" route="right" depart="1052" />
    <vehicle id="right_182" type="typeWE" route="right" depart="1065" />
    <vehicle id="up_183" type="typeNS" route="up" depart="1074" color="1,0,0"/>
    <vehicle id="down_184" type="typeNS" route="down" depart="1077" color="1,0,0"/>
    <vehicle id="right_185" type="typeWE" route="right" depart="1081" />
    <vehicle id="down_186" type="typeNS" route="down" depart="1087" color="1,0,0"/>
    <vehicle id="up_187" type="typeNS" route="up" depart="1088" color="1,0,0"/>
    <vehicle id="up_188" type="typeNS" route="up" depart="1089" color="1,0,0"/>
    <vehicle id="up_189" type="typeNS" route="up" depart="1090" color="1,0,0"/>
    <vehicle id="up_190" type="typeNS" route="up" depart="1097" color="1,0,0"/>
    <vehicle id="right_191" type="typeWE" route="right" depart="1098" />
    <vehicle id="left_192" type="typeWE" route="left" depart="1106" />
    <vehicle id="up_193" type="typeNS" route="up" depart="1112" color="1,0,0"/>
    <vehicle id="right_194" type="typeWE" route="right" depart="1113" />
    <vehicle id="left_195" type="typeWE" route="left" depart="1124" />
    <vehicle id="left_196" type="typeWE" route="left" depart="1125" />
    <vehicle id="left_197" type="typeWE" route="left" depart="1150" />
    <vehicle id="left_198" type="typeWE" route="left" depart="1152" />
    <vehicle id="down_199" type="typeNS" route="down" depart="1160" color="1,0,0"/>
    <vehicle id="up_200" type="typeNS" route="up" depart="1171" color="1,0,0"/>
    <vehicle id="left_201" type="typeWE" route="left" depart="1175" />
    <vehicle id="down_202" type="typeNS" route="down" depart="1176" color="1,0,0"/>
    <vehicle id="down_203" type="typeNS" route="down" depart="1177" color="1,0,0"/>
    <vehicle id="right_204" type="typeWE" route="right" depart="1180" />
    <vehicle id="down_205" type="typeNS" route="down" depart="1182" color="1,0,0"/>
    <vehicle id="right_206" type="typeWE" route="right" depart="1184" />
    <vehicle id="down_207" type="typeNS" route="down" depart="1187" color="1,0,0"/>
    <vehicle id="up_208" type="typeNS" route="up" depart="1191" color="1,0,0"/>
    <vehicle id="right_209" type="typeWE" route="right" depart="1209" />
    <vehicle id="down_210" type="typeNS" route="down" depart="1209" color="1,0,0"/>
    <vehicle id="left_211" type="typeWE" route="left" depart="1213" />
    <vehicle id="left_212" type="typeWE" route="left" depart="1234" />
    <vehicle id="left_213" type="typeWE" route="left" depart="1238" />
    <vehicle id="left_214" type="typeWE" route="left" depart="1252" />
    <vehicle id="down_215" type="typeNS" route="down" depart="1252" color="1,0,0"/>
    <vehicle id="right_216" type="typeWE" route="right" depart="1255" />
    <vehicle id="up_217" type="typeNS" route="up" depart="1256" color="1,0,0"/>
    <vehicle id="right_218" type="typeWE" route="right" depart="1258" />
    <vehicle id="right_219" type="typeWE" route="right" depart="1265" />
    <vehicle id="up_220" type="typeNS" route="up" depart="1267" color="1,0,0"/>
    <vehicle id="right_221" type="typeWE" route="right" depart="1271" />
    <vehicle id="down_222" type="typeNS" route="down" depart="1275" color="1,0,0"/>
    <vehicle id="right_223" type="typeWE" route="right" depart="1277" />
    <vehicle id="up_224" type="typeNS" route="up" depart="1280" color="1,0,0"/>
    <vehicle id="left_225" type="typeWE" route="left" depart="1285" />
    <vehicle id="right_226" type="typeWE" route="right" depart="1294" />
    <vehicle id="right_227" type="typeWE" route="right" depart="1307" />
    <vehicle id="left_228" type="typeWE" route="left" depart="1311" />
    <vehicle id="right_229" type="typeWE" route="right" depart="1319" />
    <vehicle id="up_230" type="typeNS" route="up" depart="1333" color="1,0,0"/>
    <vehicle id="up_231" type="typeNS" route="up" depart="1338" color="1,0,0"/>
    <vehicle id="up_232" type="typeNS" route="up" depart="1348" color="1,0,0"/>
    <vehicle id="left_233" type="typeWE" route="left" depart="1350" />
    <vehicle id="right_234" type="typeWE" route="right" depart="1356" />
    <vehicle id="up_235" type="typeNS" route="up" depart="1357" color="1,0,0"/>
    <vehicle id="right_236" type="typeWE" route="right" depart="1375" />
    <vehicle id="up_237" type="typeNS" route="up" depart="1379" color="1,0,0"/>
    <vehicle id="left_238" type="typeWE" route="left" depart="1385" />
    <vehicle id="right_239" type="typeWE" route="right" depart="1386" />
    <vehicle id="right_240" type="typeWE" route="right" depart="1400" />
    <vehicle id="down_241" type="typeNS" route="down" depart="1400" color="1,0,0"/>
    <vehicle id="left_242" type="typeWE" route="left" depart="1404" />
    <vehicle id="right_243" type="typeWE" route="right" depart="1406" />
    <vehicle id="left_244" type="typeWE" route="left" depart="1421" />
    <vehicle id="up_245" type="typeNS" route="up" depart="1428" color="1,0,0"/>
    <vehicle id="left_246" type="typeWE" route="left" depart="1429" />
    <vehicle id="right_247" type="typeWE" route="right" depart="1430" />
    <vehicle id="right_248" type="typeWE" route="right" depart="1432" />
    <vehicle id="right_249" type="typeWE" route="right" depart="1435" />
    <vehicle id="left_250" type="typeWE" route="left" depart="1438" />
    <vehicle id="right_251" type="typeWE" route="right" depart="1465" />
    <vehicle id="up_252" type="typeNS" route="up" depart="1469" color="1,0,0"/>
    <vehicle id="left_253" type="typeWE" route="left" depart="1477" />
    <vehicle id="right_254" type="typeWE" route="right" depart="1490" />
    <vehicle id="down_255" type="typeNS" route="down" depart="1491" color="1,0,0"/>
    <vehicle id="up_256" type="typeNS" route="up" depart="1491" color="1,0,0"/>
    <vehicle id="left_257" type="typeWE" route="left" depart="1505" />
    <vehicle id="right_258" type="typeWE" route="right" depart="1513" />
    <vehicle id="left_259" type="typeWE" route="left" depart="1518" />
    <vehicle id="down_260" type="typeNS" route="down" depart="1523" color="1,0,0"/>
    <vehicle id="up_261" type="typeNS" route="up" depart="1549" color="1,0,0"/>
    <vehicle id="down_262" type="typeNS" route="down" depart="1551" color="1,0,0"/>
    <vehicle id="down_263" type="typeNS" route="down" depart="1557" color="1,0,0"/>
    <vehicle id="up_264" type="typeNS" route="up" depart="1558" color="1,0,0"/>
    <vehicle id="down_265" type="typeNS" route="down" depart="1562" color="1,0,0"/>
    <vehicle id="right_266" type="typeWE" route="right" depart="1576" />
    <vehicle id="right_267" type="typeWE" route="right" depart="1586" />
    <vehicle id="down_268" type="typeNS" route="down" depart="1588" color="1,0,0"/>
    <vehicle id="up_269" type="typeNS" route="up" depart="1600" color="1,0,0"/>
    <vehicle id="up_270" type="typeNS" route="up" depart="1608" color="1,0,0"/>
    <vehicle id="left_271" type="typeWE" route="left" depart="1613" />
    <vehicle id="left_272" type="typeWE" route="left" depart="1632" />
    <vehicle id="right_273" type="typeWE" route="right" depart="1637" />
    <vehicle id="left_274" type="typeWE" route="left" depart="1647" />
    <vehicle id="right_275" type="typeWE" route="right" depart="1655" />
    <vehicle id="down_276" type="typeNS" route="down" depart="1658" color="1,0,0"/>
    <vehicle id="right_277" type="typeWE" route="right" depart="1661" />
    <vehicle id="left_278" type="typeWE" route="left" depart="1675" />
    <vehicle id="up_279" type="typeNS" route="up" depart="1683" color="1,0,0"/>
    <vehicle id="right_280" type="typeWE" route="right" depart="1688" />
    <vehicle id="down_281" type="typeNS" route="down" depart="1688" color="1,0,0"/>
    <vehicle id="up_282" type="typeNS" route="up" depart="1691" color="1,0,0"/>
    <vehicle id="up_283" type="typeNS" route="up" depart="1694" color="1,0,0"/>
    <vehicle id="up_284" type="typeNS" route="up" depart="1701" color="1,0,0"/>
    <vehicle id="right_285" type="typeWE" route="right" depart="1710" />
    <vehicle id="left_286" type="typeWE" route="left" depart="1710" />
    <vehicle id="up_287" type="typeNS" route="up" depart="1711" color="1,0,0"/>
    <vehicle id="right_288" type="typeWE" route="right" depart="1714" />
    <vehicle id="right_289" type="typeWE" route="right" depart="1728" />
    <vehicle id="down_290" type="typeNS" route="down" depart="1728" color="1,0,0"/>
    <vehicle id="left_291" type="typeWE" route="left" depart="1730" />
    <vehicle id="down_292" type="typeNS" route="down" depart="1734" color="1,0,0"/>
    <vehicle id="down_293" type="typeNS" route="down" depart="1741" color="1,0,0"/>
    <vehicle id="right_294" type="typeWE" route="right" depart="1776" />
    <vehicle id="left_295" type="typeWE" route="left" depart="1778" />
    <vehicle id="up_296" type="typeNS" route="up" depart="1778" color="1,0,0"/>
    <vehicle id="right_297" type="typeWE" route="right" depart="1783" />
    <vehicle id="left_298" type="typeWE" route="left" depart="1783" />
    <vehicle id="down_299" type="typeNS" route="down" depart="1793" color="1,0,0"/>
    <vehicle id="up_300" type="typeNS" route="up" depart="1794" color="1,0,0"/>
    <vehicle id="left_301" type="typeWE" route="left" depart="1797" />
    <vehicle id="right_302" type="typeWE" route="right" depart="1803" />
    <vehicle id="up_303" type="typeNS" route="up" depart="1803" color="1,0,0"/>
    <vehicle id="up_304" type="typeNS" route="up" depart="1806" color="1,0,0"/>
    <vehicle id="down_305" type="typeNS" route="down" depart="1809" color="1,0,0"/>
    <vehicle id="up_306" type="typeNS" route="up" depart="1810" color="1,0,0"/>
    <vehicle id="left_307" type="typeWE" route="left" depart="1817" />
    <vehicle id="down_308" type="typeNS" route="down" depart="1825" color="1,0,0"/>
    <vehicle id="down_309" type="typeNS" route="down" depart="1826" color="1,0,0"/>
    <vehicle id="left_310" type="typeWE" route="left" depart="1831" />
    <vehicle id="right_311" type="typeWE" route="right" depart="1834" />
    <vehicle id="left_312" type="typeWE" route="left" depart="1836" />
    <vehicle id="up_313" type="typeNS" route="up" depart="1838" color="1,0,0"/>
    <vehicle id="up_314" type="typeNS" route="up" depart="1847" color="1,0,0"/>
    <vehicle id="right_315" type="typeWE" route="right" depart="1854" />
    <vehicle id="down_316" type="typeNS" route="down" depart="1854" color="1,0,0"/>
    <vehicle id="right_317" type="typeWE" route="right" depart="1858" />
    <vehicle id="up_318" type="typeNS" route="up" depart="1859" color="1,0,0"/>
    <vehicle id="up_319" type="typeNS" route="up" depart="1861" color="1,0,0"/>
    <vehicle id="down_320" type="typeNS" route="down" depart="1862" color="1,0,0"/>
    <vehicle id="left_321" type="typeWE" route="left" depart="1866" />
    <vehicle id="left_322" type="typeWE" route="left" depart="1870" />
    <vehicle id="up_323" type="typeNS" route="up" depart="1876" color="1,0,0"/>
    <vehicle id="up_324" type="typeNS" route="up" depart="1885" color="1,0,0"/>
    <vehicle id="left_325" type="typeWE" route="left" depart="1889" />
    <vehicle id="down_326" type="typeNS" route="down" depart="1897" color="1,0,0"/>
    <vehicle id="right_327" type="typeWE" route="right" depart="1900" />
    <vehicle id="down_328" type="typeNS" route="down" depart="1905" color="1,0,0"/>
    <vehicle id="up_329" type="typeNS" route="up" depart="1913" color="1,0,0"/>
    <vehicle id="left_330" type="typeWE" route="left" depart="1914" />
    <vehicle id="right_331" type="typeWE" route="right" depart="1928" />
    <vehicle id="down_332" type="typeNS" route="down" depart="1931" color="1,0,0"/>
    <vehicle id="left_333" type="typeWE" route="left" depart="1934" />
    <vehicle id="left_334" type="typeWE" route="left" depart="1937" />
    <vehicle id="left_335" type="typeWE" route="left" depart="1956" />
    <vehicle id="up_336" type="typeNS" route="up" depart="1960" color="1,0,0"/>
    <vehicle id="left_337" type="typeWE" route="left" depart="1964" />
    <vehicle id="up_338" type="typeNS" route="up" depart="1972" color="1,0,0"/>
    <vehicle id="left_339" type="typeWE" route="left" depart="1977" />
    <vehicle id="left_340" type="typeWE" route="left" depart="1980" />
    <vehicle id="up_341" type="typeNS" route="up" depart="1987" color="1,0,0"/>
    <vehicle id="down_342" type="typeNS" route="down" depart="1995" color="1,0,0"/>
    <vehicle id="left_343" type="typeWE" route="left" depart="1999" />
    <vehicle id="left_344" type="typeWE" route="left" depart="2004" />
    <vehicle id="down_345" type="typeNS" route="down" depart="2005" color="1,0,0"/>
    <vehicle id="left_346" type="typeWE" route="left" depart="2009" />
    <vehicle id="right_347" type="typeWE" route="right" depart="2015" />
    <vehicle id="right_348" type="typeWE" route="right" depart="2035" />
    <vehicle id="left_349" type="typeWE" route="left" depart="2035" />
    <vehicle id="up_350" type="typeNS" route="up" depart="2054" color="1,0,0"/>
    <vehicle id="up_351" type="typeNS" route="up" depart="2059" color="1,0,0"/>
    <vehicle id="right_352" type="typeWE" route="right" depart="2065" />
    <vehicle id="left_353" type="typeWE" route="left" depart="2069" />
    <vehicle id="left_354" type="typeWE" route="left" depart="2075" />
    <vehicle id="right_355" type="typeWE" route="right" depart="2077" />
    <vehicle id="left_356" type="typeWE" route="left" depart="2089" />
    <vehicle id="down_357" type="typeNS" route="down" depart="2092" color="1,0,0"/>
    <vehicle id="down_358" type="typeNS" route="down" depart="2099" color="1,0,0"/>
    <vehicle id="up_359" type="typeNS" route="up" depart="2121" color="1,0,0"/>
    <vehicle id="up_360" type="typeNS" route="up" depart="2123" color="1,0,0"/>
    <vehicle id="right_361" type="typeWE" route="right" depart="2131" />
    <vehicle id="down_362" type="typeNS" route="down" depart="2136" color="1,0,0"/>
    <vehicle id="up_363" type="typeNS" route="up" depart="2144" color="1,0,0"/>
    <vehicle id="left_364" type="typeWE" route="left" depart="2146" />
    <vehicle id="right_365" type="typeWE" route="right" depart="2150" />
    <vehicle id="left_366" type="typeWE" route="left" depart="2150" />
    <vehicle id="left_367" type="typeWE" route="left" depart="2153" />
    <vehicle id="down_368" type="typeNS" route="down" depart="2164" color="1,0,0"/>
    <vehicle id="left_369" type="typeWE" route="left" depart="2173" />
    <vehicle id="up_370" type="typeNS" route="up" depart="2175" color="1,0,0"/>
    <vehicle id="up_371" type="typeNS" route="up" depart="2187" color="1,0,0"/>
    <vehicle id="up_372" type="typeNS" route="up" depart="2191" color="1,0,0"/>
    <vehicle id="right_373" type="typeWE" route="right" depart="2194" />
    <vehicle id="left_374" type="typeWE" route="left" depart="2200" />
    <vehicle id="down_375" type="typeNS" route="down" depart="2209" color="1,0,0"/>
    <vehicle id="left_376" type="typeWE" route="left" depart="2219" />
    <vehicle id="up_377" type="typeNS" route="up" depart="2219" color="1,0,0"/>
    <vehicle id="right_378" type="typeWE" route="right" depart="2225" />
    <vehicle id="right_379" type="typeWE" route="right" depart="2227" />
    <vehicle id="up_380" type="typeNS" route="up" depart="2231" color="1,0,0"/>
    <vehicle id="down_381" type="typeNS" route="down" depart="2232" color="1,0,0"/>
    <vehicle id="left_382" type="typeWE" route="left" depart="2241" />
    <vehicle id="down_383" type="typeNS" route="down" depart="2243" color="1,0,0"/>
    <vehicle id="right_384" type="typeWE" route="right" depart="2245" />
    <vehicle id="up_385" type="typeNS" route="up" depart="2245" color="1,0,0"/>
    <vehicle id="left_386" type="typeWE" route="left" depart="2264" />
    <vehicle id="left_387" type="typeWE" route="left" depart="2269" />