<additional>
	<!-- <e1Detector id="0" lane="4i_0" pos="450" freq="30" file="cross.out" friendlyPos="x"/> -->
	<inductionLoop id="0" lane="4i_0" pos="450" freq="30" file="cross.out"/>
	<inductionLoop id="1" lane="3i_0" pos="450" freq="30" file="cross.out"/>
	<inductionLoop id="2" lane="2i_0" pos="450" freq="30" file="cross.out"/>
	<inductionLoop id="3" lane="1i_0" pos="450" freq="30" file="cross.out"/>
</additional>