<?xml version="1.0" encoding="UTF-8"?>
<!-- generated on 2021-02-24 10:43:32.635602 by randomTrips.py v1_7_0+0000-714814baed
  options: -n cross.net.xml -r cross.rou.xml -e 50 -l
-->
<routes xmlns:xsi="http://www.w3.org/2001/XMLSchema-instance" xsi:noNamespaceSchemaLocation="http://sumo.dlr.de/xsd/routes_file.xsd">
    <trip id="0" depart="0.00" from="3o" to="1i"/>
    <trip id="1" depart="1.00" from="2i" to="1o"/>
    <trip id="2" depart="2.00" from="3o" to="3o"/>
    <trip id="3" depart="3.00" from="4o" to="1i"/>
    <trip id="4" depart="4.00" from="2o" to="1i"/>
    <trip id="5" depart="5.00" from="1o" to="3i"/>
    <trip id="6" depart="6.00" from="1i" to="1o"/>
    <trip id="7" depart="7.00" from="3o" to="3i"/>
    <trip id="8" depart="8.00" from="1o" to="3i"/>
    <trip id="9" depart="9.00" from="4i" to="1i"/>
    <trip id="10" depart="10.00" from="4i" to="3o"/>
    <trip id="11" depart="11.00" from="2i" to="1o"/>
    <trip id="12" depart="12.00" from="4o" to="2i"/>
    <trip id="13" depart="13.00" from="1i" to="1i"/>
    <trip id="14" depart="14.00" from="4i" to="3i"/>
    <trip id="15" depart="15.00" from="4i" to="3o"/>
    <trip id="16" depart="16.00" from="3i" to="4o"/>
    <trip id="17" depart="17.00" from="2o" to="3i"/>
    <trip id="18" depart="18.00" from="4i" to="3i"/>
    <trip id="19" depart="19.00" from="4i" to="3i"/>
    <trip id="20" depart="20.00" from="3o" to="1i"/>
    <trip id="21" depart="21.00" from="1o" to="2i"/>
    <trip id="22" depart="22.00" from="1i" to="1o"/>
    <trip id="23" depart="23.00" from="1i" to="2i"/>
    <trip id="24" depart="24.00" from="3o" to="2i"/>
    <trip id="25" depart="25.00" from="2i" to="1o"/>
    <trip id="26" depart="26.00" from="2i" to="4o"/>
    <trip id="27" depart="27.00" from="3o" to="3i"/>
    <trip id="28" depart="28.00" from="1o" to="3o"/>
    <trip id="29" depart="29.00" from="1o" to="2o"/>
    <trip id="30" depart="30.00" from="4o" to="3o"/>
    <trip id="31" depart="31.00" from="3i" to="3o"/>
    <trip id="32" depart="32.00" from="4i" to="4i"/>
    <trip id="33" depart="33.00" from="1o" to="1i"/>
    <trip id="34" depart="34.00" from="2i" to="2i"/>
    <trip id="35" depart="35.00" from="1o" to="4o"/>
    <trip id="36" depart="36.00" from="4o" to="2i"/>
    <trip id="37" depart="37.00" from="3o" to="2o"/>
    <trip id="38" depart="38.00" from="4o" to="2o"/>
    <trip id="39" depart="39.00" from="2i" to="1o"/>
    <trip id="40" depart="40.00" from="3i" to="2i"/>
    <trip id="41" depart="41.00" from="3i" to="4o"/>
    <trip id="42" depart="42.00" from="2o" to="1o"/>
    <trip id="43" depart="43.00" from="54o" to="3i"/>
    <trip id="44" depart="44.00" from="1i" to="1i"/>
    <trip id="45" depart="45.00" from="1i" to="3o"/>
    <trip id="46" depart="46.00" from="4i" to="2o"/>
    <trip id="47" depart="47.00" from="1i" to="2o"/>
    <trip id="48" depart="48.00" from="53o" to="3i"/>
    <trip id="49" depart="49.00" from="4o" to="4i"/>
</routes>
